-----BEGIN RSA PRIVATE KEY-----
MIIEpAIBAAKCAQEAurIx0mRKO5UFgUD1uFVN4fbnmisL3/hYQvuWs7zu7YXrWCGR
fWxwh4lgGkIJ/pFh15vcWgPTdBGmdBHXCyb9dP6BDWDSCa8TZVsQR6UOAyy6+wxW
uHAbK3PUQF1rgZg2Vl8oGjqRP679a1fTfFMnXTdHwEQgD7ajMXAUYFsnymkzg0EE
iCS8VNhFbJEgDdwKGjZjpWMp/C4rLrJXo2K4XFpooim5ioov59bp+HgSrSK2jsX2
+jTNzz8SjAR4doWW1rbR9yuXDfi8gvPMISxokbavrdoRdJXXqVkrcaBuVEU5kxwe
tryVowNe3wVR1zF5OSoWhZBTMXRXCXpR0t1cPwIDAQABAoIBAQCHLVbdmzgUhAYE
XGCOI1XM8tUmz1w9wrdFaJzpbzcgTALnQQby5X1k5Zbr7D0IUYOidXvKwVJtjAoV
qIUn0gdampweb6gk0tscXB8hgOTwb4bDF2ADE0jY4XkhUYLxxqAxUZzbwORCVBWx
j1nVfu/Vkp0lHS6JshffR+O5EMdyyhMsyGMk2JQwsgUXRnjxWAPYhUycC49rrsMJ
Sd+M3/q1ktzmFqQ2EBLb5LYwadR/htMgvsTY3027ypGbHhv51UPAruoXeVJ5yJvc
TmTzBlEPp4mpk0ZIvqtEnZCV76spxGm4FQGSlESf1fRMXSAEAyo6G4+l9nqFN5Ha
R/MT3DGBAoGBAPDSH/CE88fuW9efiZX7SfAplpUXl2KhMkmQyeNKUhX5KZ7YzOiN
S+n2IM/k4r/zXHNyxsZ2L3cd08seGfSWzDza4vKic04lm9p1WDB+to99LapNpz/p
US4sNOIyFJsntfvek3pUf+jHE5gblAZulJ9F0S1iwbMj6KoiskNxU0xvAoGBAMZ2
tx9KwEKIl3VpWuwRJCr8KcgHkcD4zlrk/JV1OqFzfxDoe6Qvm9Z8NlE04XOQCwAx
ak10vdpE9TV8zr836eAtZ0SzEclw8hkIhkJD8flUy94o0eekOxSiyzhgJtj4pByD
UTz0V961KmLbxtslGB/Gj027eNfhmRpdhlw4U3UxAoGAREUdXt8iCRTOnpMQux8Q
9++iS8PzW7ec/PP59+By4t3O6cRGWsrrsXjgFm+pxIbmN6hbJ5oLnLYs+5EeBJPX
dI0M94IMNCQ/SbAofx78/DKdhoEbH+gx5mgL2fAenVmlorCXmH9p/4CoUl/HGAez
RG/TfA1aIkHUzJ6ncK0o0ysCgYBtpQKwoAyt9Wav8D/SMfooYV336+6jjRH8d4vw
Sm7U6ckmnzpH0CGpksAzhyKTRN4/Ag33sup8nyJVpZlXXV2xg4QNGV1XTDYEjIgY
Lg+OL0Hef/DPqBUX5oSdpclwj5WjRw1nvpqZKL+9FCy9v7WfQITFbjBqHHIIdekY
I+o/0QKBgQCW9XECf3jApzPiUu9i/7WU7fXLEAUn8DVK8+ykwmnQfKm2T9ltnIAF
v/Hh7ivu20bPxSa0VFwF2E1r2aDUnu/i/rwrswHkLnIJSEjDRzQy4tIRer2uyEtn
NthKvQpU1i32S0vPujshWnvuViD7fTv1oKXsdIh0x8NkyVR3osmhKg==
-----END RSA PRIVATE KEY-----
